      12
 i =        0, time =        0.000, E =         0.0405162729
  C         0.0950000000        0.1810000000       -0.2170000000
  H         0.3480000000        1.1260000000        0.2580000000
  H        -0.3910000000        0.1850000000       -1.1900000000
  C         0.3780000000       -0.9650000000        0.3830000000
  H         0.1260000000       -1.9100000000       -0.0920000000
  H         0.8650000000       -0.9690000000        1.3550000000
  C         3.6220000000        0.9650000000       -0.3830000000
  H         3.8750000000        1.9100000000        0.0920000000
  H         3.1360000000        0.9690000000       -1.3560000000
  C         3.9050000000       -0.1810000000        0.2170000000
  H         3.6530000000       -1.1260000000       -0.2580000000
  H         4.3920000000       -0.1850000000        1.1890000000
      12
 i =        5, time =        2.500, E =         0.0457668039
  C         0.1049456256        0.1740899435       -0.2218312119
  H         0.3603618469        1.1165348344        0.2420321585
  H        -0.4065391221        0.1647935049       -1.2157515505
  C         0.3936252987       -0.9765700193        0.3902070284
  H         0.1847444224       -1.9322335161       -0.0827500183
  H         0.8766367006       -0.9887139370        1.3953329454
  C         3.6090490943        0.9692249925       -0.3814034841
  H         3.8179728617        1.8835354441        0.0733349086
  H         3.0935798707        1.0042761905       -1.3768209770
  C         3.8960485548       -0.1657604031        0.2152159091
  H         3.6294393111       -1.0681842680       -0.2842215312
  H         4.4040942226       -0.1917384195        1.2207718627
      12
 i =       10, time =        5.000, E =         0.0383456339
  C         0.1170131527        0.1648223204       -0.2293562044
  H         0.3696622312        1.1149121319        0.2315917516
  H        -0.3948127307        0.1464563887       -1.2018470817
  C         0.4145835757       -0.9861047272        0.3997290950
  H         0.2334595972       -1.9497652397       -0.0776445297
  H         0.8734094397       -0.9987648209        1.3949362610
  C         3.5841509971        0.9886072520       -0.3949442355
  H         3.7836905023        1.9121651768        0.0915858833
  H         3.0755775671        1.0229461087       -1.3535832626
  C         3.8901676687       -0.1676897674        0.2269580716
  H         3.6048098967       -1.0474725608       -0.3152528608
  H         4.3877234528       -0.1961292523        1.1997767481
